407
Lattice="68.3688603174 0.0 0.0 0.0 89.083084224 0.0 0.0 0.0 96.5971452834" Properties=species:S:1:pos:R:3:orig_index:I:1:cluster_mark:I:1:charge:R:1:Z:I:1 no_quantum_atoms=385 pbc="F F F"
C     34.46299346      30.14754505      31.03879548      180        4       0.00000000        6 
C     35.68166000      30.33772756      31.75854064      181        4       0.00000000        6 
C     36.73353404      30.92413202      31.03415223      182        3       0.00000000        6 
C     37.58582425      31.81670097      31.76206266      183        2       0.00000000        6 
C     38.16177271      32.89519983      31.02876041      184        3       0.00000000        6 
C     38.29250791      34.11783870      31.75166871      185        2       0.00000000        6 
C     38.07313074      35.31867215      31.04769715      186        3       0.00000000        6 
C     37.52584145      36.45374357      31.81098511      187        2       0.00000000        6 
C     36.68536165      37.31111711      31.04080195      188        3       0.00000000        6 
C     35.57452869      37.90354634      31.76405607      189        2       0.00000000        6 
C     34.35603062      38.05132899      31.03307111      190        3       0.00000000        6 
C     33.14716319      37.88723657      31.73639240      191        2       0.00000000        6 
C     32.08333248      37.23279692      31.00175711      192        3       0.00000000        6 
C     31.25142635      36.35062221      31.72941082      193        2       0.00000000        6 
C     30.65235014      35.29287098      30.99920585      194        3       0.00000000        6 
C     30.51505939      34.07107579      31.70146812      195        2       0.00000000        6 
C     30.67181117      32.84094267      31.00560668      196        3       0.00000000        6 
C     31.26209098      31.78128097      31.69781705      197        2       0.00000000        6 
C     32.08533551      30.91102571      31.01636727      198        3       0.00000000        6 
C     33.22229592      30.33558133      31.73273942      199        4       0.00000000        6 
C     35.64467789      30.33189281      33.14521303      200        3       0.00000000        6 
C     36.70710328      30.92204172      33.89557952      201        2       0.00000000        6 
C     37.55962680      31.83490044      33.19747067      202        2       0.00000000        6 
C     38.02411632      32.96230189      33.94932384      203        2       0.00000000        6 
C     38.26825638      34.20641737      33.17628099      204        2       0.00000000        6 
C     37.99710501      35.43612829      33.91882816      205        2       0.00000000        6 
C     37.50802299      36.55465633      33.22538566      206        2       0.00000000        6 
C     36.59184094      37.38507270      33.96204549      207        2       0.00000000        6 
C     35.53478971      37.95060355      33.22683534      208        2       0.00000000        6 
C     34.23893059      38.09961115      33.92698083      209        2       0.00000000        6 
C     33.08816622      37.88536495      33.15247966      210        2       0.00000000        6 
C     31.98454373      37.28001636      33.90365354      211        2       0.00000000        6 
C     31.20940269      36.37180437      33.15119976      212        2       0.00000000        6 
C     30.61313092      35.31313536      33.85092530      213        2       0.00000000        6 
C     30.49753922      34.11174575      33.14398952      214        2       0.00000000        6 
C     30.68645218      32.92313936      33.84777912      215        2       0.00000000        6 
C     31.30151230      31.83529527      33.14841914      216        2       0.00000000        6 
C     32.15048757      30.97352220      33.87646317      217        2       0.00000000        6 
C     33.17739787      30.37376622      33.13956311      218        3       0.00000000        6 
C     34.37708298      30.15061776      33.84553832      219        4       0.00000000        6 
C     36.67737290      30.93279533      35.29146370      220        2       0.00000000        6 
C     37.52689332      31.83147235      36.00457961      221        2       0.00000000        6 
C     38.00730306      32.96323792      35.32000305      222        2       0.00000000        6 
C     38.12312539      34.20435602      36.01609837      223        2       0.00000000        6 
C     37.93265691      35.39939096      35.34617274      224        2       0.00000000        6 
C     37.26379433      36.48375758      36.07239272      225        2       0.00000000        6 
C     36.44923703      37.38901019      35.37374700      226        2       0.00000000        6 
C     35.34446745      37.93700304      36.07576923      227        2       0.00000000        6 
C     34.17389319      38.12681921      35.33398799      228        2       0.00000000        6 
C     32.95947637      37.94148038      36.04493164      229        2       0.00000000        6 
C     31.89223290      37.33428077      35.32041275      230        2       0.00000000        6 
C     31.02475770      36.46493890      36.00969928      231        2       0.00000000        6 
C     30.53082571      35.32877888      35.26276432      232        2       0.00000000        6 
C     30.32092803      34.08877282      35.97032038      233        2       0.00000000        6 
C     30.61512944      32.91408674      35.25390233      234        2       0.00000000        6 
C     31.18558972      31.80177293      35.98741698      235        2       0.00000000        6 
C     32.12350692      30.98974883      35.32190544      236        2       0.00000000        6 
C     33.23092562      30.41279130      35.98849651      237        2       0.00000000        6 
C     34.38542569      30.15296874      35.25806456      238        3       0.00000000        6 
C     35.60557158      30.33999855      35.98894540      239        2       0.00000000        6 
C     37.56966000      31.87734338      37.40281924      240        2       0.00000000        6 
C     38.07598983      32.98748583      38.16000332      241        2       0.00000000        6 
C     38.15723123      34.20083323      37.45693566      242        2       0.00000000        6 
C     37.94751517      35.42488631      38.21422146      243        2       0.00000000        6 
C     37.30178914      36.47261481      37.48942841      244        2       0.00000000        6 
C     36.42691200      37.38609880      38.19456132      245        2       0.00000000        6 
C     35.35202516      37.97680376      37.45142706      246        2       0.00000000        6 
C     34.17107298      38.20107273      38.18950376      247        2       0.00000000        6 
C     32.93880753      37.94015439      37.45165705      248        2       0.00000000        6 
C     31.89074897      37.29293792      38.23536276      249        2       0.00000000        6 
C     31.01643951      36.44242578      37.44705394      250        2       0.00000000        6 
C     30.44211757      35.31262003      38.15338237      251        2       0.00000000        6 
C     30.26989861      34.10664294      37.37887033      252        2       0.00000000        6 
C     30.55783475      32.86316210      38.12051044      253        2       0.00000000        6 
C     31.19124626      31.78970291      37.37215089      254        2       0.00000000        6 
C     32.09528031      30.93721606      38.10116230      255        2       0.00000000        6 
C     33.24624095      30.38313646      37.41152638      256        2       0.00000000        6 
C     34.44660769      30.20355409      38.13134858      257        2       0.00000000        6 
C     35.63850956      30.36185979      37.38851662      258        2       0.00000000        6 
C     36.76621075      30.94050339      38.11616989      259        2       0.00000000        6 
C     38.15763643      33.06642888      39.55427669      260        2       0.00000000        6 
C     38.26194959      34.31509663      40.28840898      261        2       0.00000000        6 
C     37.96694501      35.49170910      39.60183657      262        2       0.00000000        6 
C     37.41237593      36.63128385      40.32173263      263        2       0.00000000        6 
C     36.44844619      37.45210466      39.59615328      264        2       0.00000000        6 
C     35.36817382      38.08563878      40.30135552      265        2       0.00000000        6 
C     34.12630195      38.22529169      39.57036087      266        2       0.00000000        6 
C     32.94495740      37.90159906      40.29269594      267        2       0.00000000        6 
C     31.87591329      37.24473007      39.60222092      268        2       0.00000000        6 
C     31.02585916      36.39822014      40.32676788      269        2       0.00000000        6 
C     30.45963195      35.28195570      39.57898455      270        2       0.00000000        6 
C     30.29201037      34.01841453      40.28629343      271        2       0.00000000        6 
C     30.51391693      32.84406726      39.52809083      272        2       0.00000000        6 
C     31.10669470      31.68914428      40.20581775      273        2       0.00000000        6 
C     32.08365762      30.88607360      39.52825001      274        2       0.00000000        6 
C     33.22158186      30.34482189      40.22945618      275        2       0.00000000        6 
C     34.44404633      30.21858682      39.51922595      276        2       0.00000000        6 
C     35.71272985      30.41102367      40.23864815      277        2       0.00000000        6 
C     36.80023999      30.96176560      39.52696252      278        2       0.00000000        6 
C     37.65624331      31.88537859      40.24699106      279        2       0.00000000        6 
C     38.21820263      34.33914402      41.70253585      280        2       0.00000000        6 
C     37.95784952      35.54017627      42.41038699      281        2       0.00000000        6 
C     37.45021145      36.68980088      41.70331911      282        2       0.00000000        6 
C     36.51129242      37.49021924      42.38265227      283        2       0.00000000        6 
C     35.37318485      38.00635801      41.68431043      284        2       0.00000000        6 
C     34.16002271      38.08561082      42.43288570      285        2       0.00000000        6 
C     32.98589192      37.83553975      41.72612395      286        2       0.00000000        6 
C     31.91210308      37.26811583      42.45620438      287        2       0.00000000        6 
C     31.06529144      36.33126143      41.74060299      288        2       0.00000000        6 
C     30.52154436      35.21948417      42.43311585      289        2       0.00000000        6 
C     30.32152380      33.99665096      41.70615244      290        2       0.00000000        6 
C     30.54333452      32.78600140      42.40022393      291        2       0.00000000        6 
C     31.12162470      31.66387326      41.65938936      292        2       0.00000000        6 
C     32.09231510      30.80783762      42.32404681      293        2       0.00000000        6 
C     33.19110112      30.30699233      41.62110946      294        2       0.00000000        6 
C     34.45971541      30.14430052      42.35770194      295        2       0.00000000        6 
C     35.67710398      30.43516362      41.64319882      296        2       0.00000000        6 
C     36.78501208      30.95407704      42.35334277      297        2       0.00000000        6 
C     37.68731404      31.85283021      41.63999730      298        2       0.00000000        6 
C     38.10411291      33.10669273      42.36484293      299        2       0.00000000        6 
C     37.95334303      35.61635070      43.81980563      300        2       0.00000000        6 
C     37.41053935      36.76550891      44.54689297      301        2       0.00000000        6 
C     36.49103017      37.53534088      43.79057306      302        1       0.00000000        6 
C     35.40627458      38.10399320      44.52925382      303        1       0.00000000        6 
C     34.17943132      38.16864005      43.83441369      304        1       0.00000000        6 
C     32.97577454      38.00357460      44.54343231      305        1       0.00000000        6 
C     31.89213419      37.36565079      43.85755840      306        1       0.00000000        6 
C     31.10403876      36.42811287      44.56597030      307        2       0.00000000        6 
C     30.59791749      35.23845141      43.86631962      308        2       0.00000000        6 
C     30.44905804      34.02247653      44.53571683      309        2       0.00000000        6 
C     30.63198631      32.80208047      43.78283079      310        2       0.00000000        6 
C     31.24370582      31.73067384      44.46791436      311        2       0.00000000        6 
C     32.09563193      30.83585065      43.74727090      312        2       0.00000000        6 
C     33.19650158      30.26210073      44.46261653      313        2       0.00000000        6 
C     34.43716847      30.05548442      43.74371945      314        2       0.00000000        6 
C     35.61212762      30.29495462      44.48532565      315        2       0.00000000        6 
C     36.72405871      30.92715396      43.76944309      316        2       0.00000000        6 
C     37.48478890      31.93264172      44.47109142      317        2       0.00000000        6 
C     37.99867240      33.11712387      43.76793020      318        2       0.00000000        6 
C     38.15630546      34.38730903      44.51775448      319        2       0.00000000        6 
C     37.40184069      36.75822066      45.96964064      320        1       0.00000000        6 
C     36.53115154      37.62345594      46.69621437      321        1       0.00000000        6 
C     35.40721850      38.20808048      45.94632814      322        1       0.00000000        6 
C     34.19073918      38.49311524      46.59405719      323        1       0.00000000        6 
C     33.01377479      38.02935075      45.95469848      324        1       0.00000000        6 
C     31.93023518      37.45842479      46.65745585      325        1       0.00000000        6 
C     31.15583189      36.51844085      45.94669983      326        1       0.00000000        6 
C     30.67605729      35.35902733      46.64016339      327        2       0.00000000        6 
C     30.51601386      34.10225105      45.94368892      328        2       0.00000000        6 
C     30.75178704      32.82885030      46.58029565      329        2       0.00000000        6 
C     31.29633241      31.72404251      45.83968479      330        2       0.00000000        6 
C     32.13064880      30.82656490      46.59002435      331        2       0.00000000        6 
C     33.21920068      30.25124227      45.87839120      332        2       0.00000000        6 
C     34.44634294      30.00000000      46.58618618      333        2       0.00000000        6 
C     35.64089637      30.27397981      45.87516603      334        2       0.00000000        6 
C     36.68228782      30.97089091      46.60354030      335        2       0.00000000        6 
C     37.44086970      31.96463533      45.88975889      336        2       0.00000000        6 
C     37.87692475      33.14143038      46.58446101      337        2       0.00000000        6 
C     38.10829293      34.39238651      45.92345196      338        2       0.00000000        6 
C     37.92516159      35.62254078      46.66687875      339        2       0.00000000        6 
C     36.46355548      37.67443080      48.14091871      340        1       0.00000000        6 
C     35.46194653      38.33728234      48.80693990      341        1       0.00000000        6 
C     34.15567698      38.82280879      48.05806041      342        1       0.00000000        6 
C     33.02451329      38.11550570      48.78321778      343        1       0.00000000        6 
C     31.95414853      37.45555254      48.08622135      344        1       0.00000000        6 
C     31.23941998      36.46525683      48.75653907      345        1       0.00000000        6 
C     30.68025874      35.36825577      48.05658705      346        1       0.00000000        6 
C     30.60117799      34.12733839      48.70941673      347        2       0.00000000        6 
C     30.79456354      32.85503230      47.96997007      348        2       0.00000000        6 
C     31.33197183      31.71752947      48.73044353      349        2       0.00000000        6 
C     32.10762947      30.76097628      47.99405795      350        2       0.00000000        6 
C     33.19579418      30.25373454      48.71638101      351        2       0.00000000        6 
C     34.41642335      30.04308932      47.98643085      352        2       0.00000000        6 
C     35.60115627      30.33127852      48.74749742      353        2       0.00000000        6 
C     36.65671421      31.02618467      48.01633282      354        2       0.00000000        6 
C     37.37624327      32.02986863      48.70862646      355        2       0.00000000        6 
C     37.88479766      33.18420703      48.01839442      356        2       0.00000000        6 
C     38.07337188      34.44321894      48.76332927      357        2       0.00000000        6 
C     37.88114384      35.63928802      48.06546145      358        1       0.00000000        6 
C     37.30683582      36.72838740      48.82430020      359        1       0.00000000        6 
C     35.47573276      38.31423308      50.22039087      360        1       0.00000000        6 
C     34.20202530      38.43064754      50.95738153      361        1       0.00000000        6 
C     32.99231645      38.10350184      50.21431516      362        1       0.00000000        6 
C     31.95473404      37.42212599      50.85557150      363        1       0.00000000        6 
C     31.20336839      36.40508716      50.16994355      364        1       0.00000000        6 
C     30.75820066      35.23857550      50.85683513      365        2       0.00000000        6 
C     30.60221170      34.06292750      50.10108486      366        2       0.00000000        6 
C     30.78180722      32.83329418      50.82148987      367        2       0.00000000        6 
C     31.32383374      31.73548045      50.14932505      368        2       0.00000000        6 
C     32.15788985      30.82391792      50.82409374      369        2       0.00000000        6 
C     33.24138722      30.31612122      50.12316125      370        2       0.00000000        6 
C     34.46762794      30.15743502      50.88127522      371        2       0.00000000        6 
C     35.64791756      30.36595428      50.15035243      372        2       0.00000000        6 
C     36.73712643      31.00759871      50.79490507      373        2       0.00000000        6 
C     37.42903731      32.01359099      50.08786660      374        2       0.00000000        6 
C     37.95248524      33.13667219      50.79662573      375        2       0.00000000        6 
C     38.09578782      34.41235505      50.15671993      376        2       0.00000000        6 
C     37.94739105      35.60861023      50.91024506      377        2       0.00000000        6 
C     37.39312009      36.73654733      50.19903961      378        1       0.00000000        6 
C     36.52303477      37.60003629      50.93045002      379        1       0.00000000        6 
C     34.18213715      38.36458295      52.32780251      380        1       0.00000000        6 
C     32.99242048      38.03618420      53.02588879      381        2       0.00000000        6 
C     31.96150889      37.35213099      52.28503224      382        1       0.00000000        6 
C     31.17546537      36.38047283      52.98856655      383        2       0.00000000        6 
C     30.67931248      35.24796069      52.24133481      384        2       0.00000000        6 
C     30.48218776      34.00186401      52.91421750      385        2       0.00000000        6 
C     30.71780653      32.77130594      52.20842141      386        2       0.00000000        6 
C     31.20130581      31.61894715      52.89710521      387        2       0.00000000        6 
C     32.12672421      30.78806313      52.19391186      388        2       0.00000000        6 
C     33.23745264      30.27424853      52.95982986      389        2       0.00000000        6 
C     34.45698727      30.16606835      52.25896667      390        2       0.00000000        6 
C     35.68972020      30.41855241      52.93007640      391        2       0.00000000        6 
C     36.77870439      30.97447593      52.18787688      392        2       0.00000000        6 
C     37.63901014      31.87258764      52.83945441      393        2       0.00000000        6 
C     38.02552275      33.04701223      52.17082168      394        2       0.00000000        6 
C     38.11179082      34.28578328      52.95136274      395        2       0.00000000        6 
C     37.94548033      35.58447340      52.30172568      396        2       0.00000000        6 
C     37.40429753      36.65436587      53.03685807      397        2       0.00000000        6 
C     36.55063455      37.58837959      52.34932987      398        1       0.00000000        6 
C     35.41985779      38.15809247      53.01877901      399        2       0.00000000        6 
C     32.99732186      37.93024969      54.42057013      400        2       0.00000000        6 
C     31.94503207      37.29239869      55.07186049      401        2       0.00000000        6 
C     31.19889722      36.37271341      54.37715905      402        2       0.00000000        6 
C     30.68089808      35.23059167      55.03683148      403        2       0.00000000        6 
C     30.47237315      33.99940132      54.32406225      404        2       0.00000000        6 
C     30.63341651      32.77505592      55.06084747      405        2       0.00000000        6 
C     31.16724025      31.63329906      54.29341085      406        2       0.00000000        6 
C     32.06904117      30.74167844      55.02241353      407        2       0.00000000        6 
C     33.21711020      30.27405872      54.32545350      408        2       0.00000000        6 
C     34.46652968      30.15304671      55.03294210      409        2       0.00000000        6 
C     35.70613834      30.40368806      54.33578342      410        2       0.00000000        6 
C     36.83063563      31.00265551      55.04083170      411        2       0.00000000        6 
C     37.66172363      31.87488731      54.26357753      412        2       0.00000000        6 
C     38.07345871      33.03148693      55.02470044      413        2       0.00000000        6 
C     38.09720607      34.29211585      54.35748067      414        2       0.00000000        6 
C     37.91041641      35.51484567      55.10287017      415        2       0.00000000        6 
C     37.38765644      36.62445311      54.42841955      416        2       0.00000000        6 
C     36.53265015      37.49884416      55.09173958      417        2       0.00000000        6 
C     35.44235098      38.08601264      54.40444136      418        2       0.00000000        6 
C     34.22877753      38.21743012      55.14493149      419        2       0.00000000        6 
C     31.99220669      37.30827529      56.45491387      420        2       0.00000000        6 
C     31.18227370      36.37020512      57.14565626      421        2       0.00000000        6 
C     30.69058911      35.27179833      56.42264164      422        2       0.00000000        6 
C     30.57327779      34.06769841      57.16185526      423        2       0.00000000        6 
C     30.68949113      32.86085081      56.46814665      424        2       0.00000000        6 
C     31.30775125      31.75429293      57.13090828      425        2       0.00000000        6 
C     32.14157225      30.82693416      56.41312800      426        2       0.00000000        6 
C     33.23125530      30.24538230      57.10314822      427        2       0.00000000        6 
C     34.47424211      30.12938257      56.40158981      428        2       0.00000000        6 
C     35.72780104      30.32039485      57.11407960      429        2       0.00000000        6 
C     36.85655190      31.00180730      56.44640337      430        2       0.00000000        6 
C     37.68545945      31.92706872      57.13216028      431        2       0.00000000        6 
C     38.11078843      33.05609305      56.41729769      432        2       0.00000000        6 
C     38.15571634      34.26564707      57.12002485      433        2       0.00000000        6 
C     37.90557300      35.51708602      56.47989588      434        2       0.00000000        6 
C     37.38345547      36.62698803      57.19353449      435        2       0.00000000        6 
C     36.54084490      37.52844108      56.51295960      436        2       0.00000000        6 
C     35.44099665      38.12209065      57.20278032      437        2       0.00000000        6 
C     34.24910851      38.21755564      56.48128441      438        2       0.00000000        6 
C     33.00575689      37.97110767      57.16633556      439        2       0.00000000        6 
C     31.19949726      36.42074936      58.54003752      440        2       0.00000000        6 
C     30.66577915      35.34115095      59.26711656      441        2       0.00000000        6 
C     30.55804565      34.10995665      58.58407647      442        2       0.00000000        6 
C     30.71984287      32.85920306      59.28725797      443        2       0.00000000        6 
C     31.30562405      31.79528739      58.53040419      444        2       0.00000000        6 
C     32.20366835      30.87506268      59.19808425      445        2       0.00000000        6 
C     33.27537827      30.27008238      58.47753657      446        2       0.00000000        6 
C     34.54935550      30.04111964      59.19669975      447        2       0.00000000        6 
C     35.76492213      30.28583942      58.52682526      448        2       0.00000000        6 
C     36.80989541      30.98567517      59.23243441      449        2       0.00000000        6 
C     37.65739973      31.88167580      58.53179325      450        2       0.00000000        6 
C     38.17394509      33.00721720      59.23759438      451        2       0.00000000        6 
C     38.20750193      34.25672997      58.51866757      452        2       0.00000000        6 
C     37.98673836      35.47604721      59.26882508      453        2       0.00000000        6 
C     37.35068840      36.58912813      58.58410230      454        2       0.00000000        6 
C     36.49996542      37.46490367      59.29279937      455        2       0.00000000        6 
C     35.45125815      38.10341013      58.59068748      456        2       0.00000000        6 
C     34.18142744      38.32061763      59.25708154      457        2       0.00000000        6 
C     33.00192482      38.02807668      58.55561011      458        2       0.00000000        6 
C     31.95586329      37.43021249      59.26460234      459        2       0.00000000        6 
C     30.63335483      35.29271738      60.66079140      460        2       0.00000000        6 
C     30.49960121      34.07953889      61.37881546      461        2       0.00000000        6 
C     30.74756699      32.86683913      60.65579254      462        2       0.00000000        6 
C     31.28303767      31.77704825      61.33345482      463        2       0.00000000        6 
C     32.15818240      30.88134974      60.60554689      464        2       0.00000000        6 
C     33.23883971      30.27832664      61.30295531      465        2       0.00000000        6 
C     34.47166898      30.08792455      60.60395947      466        3       0.00000000        6 
C     35.69124506      30.36955872      61.32052727      467        2       0.00000000        6 
C     36.80643037      30.98262090      60.64642685      468        2       0.00000000        6 
C     37.70651263      31.89553293      61.32896640      469        2       0.00000000        6 
C     38.24600083      33.05434310      60.63437670      470        2       0.00000000        6 
C     38.36886032      34.27310163      61.39882651      471        2       0.00000000        6 
C     38.03805181      35.47709907      60.65924754      472        2       0.00000000        6 
C     37.36649014      36.51559092      61.36615780      473        2       0.00000000        6 
C     36.46110295      37.41131519      60.69802963      474        2       0.00000000        6 
C     35.36368619      38.05839081      61.36832519      475        2       0.00000000        6 
C     34.15429835      38.34949265      60.69855507      476        2       0.00000000        6 
C     32.97872791      38.03380491      61.40461139      477        2       0.00000000        6 
C     31.93120466      37.40977221      60.68194458      478        2       0.00000000        6 
C     31.13415587      36.41548541      61.38738413      479        2       0.00000000        6 
C     30.45228977      34.05273904      62.75142237      480        2       0.00000000        6 
C     30.64914184      32.84822061      63.42101032      481        2       0.00000000        6 
C     31.24432186      31.75947531      62.72420613      482        2       0.00000000        6 
C     32.13576926      30.86801415      63.42360268      483        2       0.00000000        6 
C     33.25251560      30.25466129      62.68363667      484        3       0.00000000        6 
C     34.42838506      30.12361088      63.42212759      485        4       0.00000000        6 
C     35.68036784      30.38981954      62.75220663      486        3       0.00000000        6 
C     36.80971634      30.99519559      63.46204829      487        2       0.00000000        6 
C     37.69790322      31.89480472      62.75894713      488        2       0.00000000        6 
C     38.24860035      33.01419738      63.46699948      489        2       0.00000000        6 
C     38.36728059      34.24858163      62.79735811      490        2       0.00000000        6 
C     38.09293067      35.45776679      63.48814203      491        2       0.00000000        6 
C     37.45630978      36.52118692      62.75541316      492        2       0.00000000        6 
C     36.57762599      37.34623380      63.45802724      493        2       0.00000000        6 
C     35.46763319      38.02313792      62.75922400      494        2       0.00000000        6 
C     34.26070435      38.20855440      63.51333777      495        2       0.00000000        6 
C     33.00792424      37.98872150      62.78796956      496        2       0.00000000        6 
C     31.96971436      37.32278002      63.48988177      497        2       0.00000000        6 
C     31.16065502      36.40293353      62.78523447      498        2       0.00000000        6 
C     30.60955174      35.26258258      63.43718026      499        2       0.00000000        6 
C     30.62881792      32.78983635      64.81931469      500        3       0.00000000        6 
C     31.23952808      31.69843464      65.49344436      501        4       0.00000000        6 
C     32.12903824      30.84059584      64.79712007      502        3       0.00000000        6 
C     36.74548659      30.98961034      64.85101811      506        3       0.00000000        6 
C     37.66313359      31.86172763      65.52722379      507        4       0.00000000        6 
C     38.24314527      32.98838906      64.84192898      508        3       0.00000000        6 
C     38.36674545      34.20191150      65.54169624      509        4       0.00000000        6 
C     38.08887888      35.42859982      64.86097132      510        3       0.00000000        6 
C     37.52117432      36.47592771      65.57195125      511        4       0.00000000        6 
C     36.65595876      37.38265421      64.87745649      512        3       0.00000000        6 
C     35.55099860      37.94942205      65.58098045      513        4       0.00000000        6 
C     34.28786531      38.14082496      64.91284999      514        3       0.00000000        6 
C     33.10072033      37.87946728      65.59839834      515        4       0.00000000        6 
C     31.99079676      37.31442871      64.91100209      516        3       0.00000000        6 
C     31.13625781      36.39746664      65.58236865      517        4       0.00000000        6 
C     30.62971380      35.26989704      64.82766284      518        3       0.00000000        6 
C     30.42201700      34.06174760      65.52620909      519        4       0.00000000        6 
C     33.81427767      40.41421618      48.26657327      720        1       0.00000000        6 
C     34.45323758      41.74591927      47.78637647      721        1       0.00000000        6 
H     33.60239066      40.52022186      49.34289729      722        1       0.00000000        1 
H     32.85088397      40.49560851      47.84231585      723        1       0.00000000        1 
H     35.16692267      41.97204962      48.53628146      724        1       0.00000000        1 
H     35.01304858      41.41615551      46.89225525      725        1       0.00000000        1 
C     33.60144430      42.91150410      47.52148100      726        1       0.00000000        6 
C     33.05617024      43.68067117      48.74494761      727        1       0.00000000        6 
H     32.79341269      42.60509041      46.76135571      728        1       0.00000000        1 
H     34.19641033      43.72857502      46.98692274      729        1       0.00000000        1 
H     32.21700131      43.03897346      49.18795256      730        1       0.00000000        1 
H     33.83832961      43.60557516      49.49088242      731        1       0.00000000        1 
C     32.58126923      45.15094991      48.82167911      732        2       0.00000000        6 
C     33.53806275      46.27615118      48.54461262      733        2       0.00000000        6 
H     32.32099917      45.25918019      49.89337168      734        5       0.00000000        1 
H     31.67548969      45.23166540      48.18661773      735        5       0.00000000        1 
H     34.45389521      46.16652885      49.13558108      736        5       0.00000000        1 
H     33.82016064      46.59494604      47.50747689      737        5       0.00000000        1 
C     32.79691290      47.41616762      49.09056392      738        2       0.00000000        6 
C     33.44836361      48.83158471      49.36420497      739        2       0.00000000        6 
H     32.73027605      47.19737312      50.17150453      740        5       0.00000000        1 
H     31.82272443      47.59708608      48.69790588      741        5       0.00000000        1 
H     32.68457862      49.26045403      50.06728390      742        5       0.00000000        1 
H     34.47014808      48.86483582      49.95404260      743        5       0.00000000        1 
C     33.26503131      49.82974378      48.11101078      744        2       0.00000000        6 
C     33.20585907      51.24723354      48.61322197      745        2       0.00000000        6 
H     32.26069431      49.70044711      47.80673004      746        5       0.00000000        1 
H     33.86093089      49.70020635      47.21658396      747        5       0.00000000        1 
H     32.56910212      51.27781720      49.48326125      748        5       0.00000000        1 
H     34.30783109      51.54211604      49.03109371      749        5       0.00000000        1 
C     32.40687969      52.14119175      47.65693124      750        2       0.00000000        6 
C     32.08355877      53.55875187      48.00973940      751        2       0.00000000        6 
H     31.51464022      51.36287914      47.53806950      752        5       0.00000000        1 
H     33.00226827      52.11729846      46.68779347      753        5       0.00000000        1 
H     31.50788173      53.53833731      48.93422121      754        5       0.00000000        1 
H     33.02041970      54.08463197      48.15883293      755        5       0.00000000        1 
C     31.32663410      54.40464329      46.93154649      756        2       0.00000000        6 
C     30.87911679      55.93993095      47.52223453      757        2       0.00000000        6 
H     30.52700852      53.73699355      46.64332364      758        5       0.00000000        1 
H     31.93653243      54.49687372      46.07194428      759        5       0.00000000        1 
H     30.00000000      56.30219178      46.91439385      760        5       0.00000000        1 
H     30.46096226      55.87188544      48.56918915      761        5       0.00000000        1 
C     31.96087761      56.89881505      47.24297851      762        2       0.00000000        6 
C     31.56939893      58.38162524      47.64311975      763        3       0.00000000        6 
H     32.01869321      56.72119965      46.23275323      764        5       0.00000000        1 
H     32.94101961      56.69060578      47.65521473      765        5       0.00000000        1 
H     30.52431133      58.55002981      47.42815680      766        5       0.00000000        1 
H     31.74557501      58.50034532      48.70445076      767        5       0.00000000        1 
H     35.57502944      37.93613974      66.58060343      862        6       0.10000000        1 
H     33.12540320      37.83593220      66.59714528      862        6       0.10000000        1 
H     31.17165149      36.35321706      66.58076199      862        6       0.10000000        1 
H     30.45836315      34.02904727      66.52501320      862        6       0.10000000        1 
H     34.44344228      30.12070460      30.03934696      862        6       0.10000000        1 
H     36.74885663      30.89305578      30.03475267      862        6       0.10000000        1 
H     38.16201004      32.89310441      30.02876264      862        6       0.10000000        1 
H     38.09310177      35.31548027      30.04790169      862        6       0.10000000        1 
H     36.69172615      37.28446173      30.04117753      862        6       0.10000000        1 
H     34.35998005      38.01807163      30.03363210      862        6       0.10000000        1 
H     32.05417005      37.23339724      30.00218260      862        6       0.10000000        1 
H     30.63211959      35.25854332      30.00000000      862        6       0.10000000        1 
H     30.65408304      32.81208063      30.00618050      862        6       0.10000000        1 
H     32.09662553      30.85893930      30.01778850      862        6       0.10000000        1 
H     37.64238465      31.83793864      66.52672545      862        6       0.10000000        1 
H     34.44669421      30.13530168      64.42189161      862        6       0.10000000        1 
H     31.27664534      31.69724318      66.49275457      862        6       0.10000000        1 
H     32.88113120      30.44556798      65.32467022      862        6       0.10000000        1 
H     36.00980742      30.53510371      65.35321317      862        6       0.10000000        1 
H     32.11322133      59.08308422      47.18245449      862        6       0.10000000        1 
H     38.34992696      34.17051695      66.54106180      862        6       0.10000000        1 
H     37.53804428      36.47098367      66.57179672      862        6       0.10000000        1 
